# generated using pymatgen
data_Fe
_symmetry_space_group_name_H-M   'P 1'
_cell_length_a   3.98666803
_cell_length_b   3.98666803
_cell_length_c   45.10400000
_cell_angle_alpha   90.00000000
_cell_angle_beta   90.00000000
_cell_angle_gamma   90.00000000
_symmetry_Int_Tables_number   1
_chemical_formula_structural   Fe
_chemical_formula_sum   Fe36
_cell_volume   716.86141620
_cell_formula_units_Z   36
loop_
 _symmetry_equiv_pos_site_id
 _symmetry_equiv_pos_as_xyz
  1  'x, y, z'
loop_
 _atom_site_type_symbol
 _atom_site_label
 _atom_site_symmetry_multiplicity
 _atom_site_fract_x
 _atom_site_fract_y
 _atom_site_fract_z
 _atom_site_occupancy
  Fe  Fe1  1  0.000000  0.000000  0.296875  1
  Fe  Fe2  1  0.500000  0.500000  0.296875  1
  Fe  Fe3  1  0.500000  1.000000  0.265625  1
  Fe  Fe4  1  1.000000  0.500000  0.265625  1
  Fe  Fe5  1  0.000000  0.000000  0.359375  1
  Fe  Fe6  1  0.500000  0.500000  0.359375  1
  Fe  Fe7  1  0.500000  1.000000  0.328125  1
  Fe  Fe8  1  1.000000  0.500000  0.328125  1
  Fe  Fe9  1  0.000000  0.000000  0.421875  1
  Fe  Fe10  1  0.500000  0.500000  0.421875  1
  Fe  Fe11  1  0.500000  1.000000  0.390625  1
  Fe  Fe12  1  1.000000  0.500000  0.390625  1
  Fe  Fe13  1  0.000000  0.000000  0.484375  1
  Fe  Fe14  1  0.500000  0.500000  0.484375  1
  Fe  Fe15  1  0.500000  1.000000  0.453125  1
  Fe  Fe16  1  1.000000  0.500000  0.453125  1
  Fe  Fe17  1  0.000000  0.000000  0.546875  1
  Fe  Fe18  1  0.500000  0.500000  0.546875  1
  Fe  Fe19  1  0.500000  1.000000  0.515625  1
  Fe  Fe20  1  1.000000  0.500000  0.515625  1
  Fe  Fe21  1  0.000000  0.000000  0.609375  1
  Fe  Fe22  1  0.500000  0.500000  0.609375  1
  Fe  Fe23  1  0.500000  1.000000  0.578125  1
  Fe  Fe24  1  1.000000  0.500000  0.578125  1
  Fe  Fe25  1  0.000000  0.000000  0.671875  1
  Fe  Fe26  1  0.500000  0.500000  0.671875  1
  Fe  Fe27  1  0.500000  1.000000  0.640625  1
  Fe  Fe28  1  1.000000  0.500000  0.640625  1
  Fe  Fe29  1  0.000000  0.000000  0.734375  1
  Fe  Fe30  1  0.500000  0.500000  0.734375  1
  Fe  Fe31  1  0.500000  1.000000  0.703125  1
  Fe  Fe32  1  1.000000  0.500000  0.703125  1
  Fe  Fe33  1  0.000000  0.087890  0.765625  1
  Fe  Fe34  1  0.500000  -0.087890  -0.765625  1
  Fe  Fe35  1  0.500000  0.412110  0.765625  1
  Fe  Fe36  1  0.000000  -0.412110  -0.765625  1
