# generated using pymatgen
data_Ni
_symmetry_space_group_name_H-M   'P 1'
_cell_length_a   2.48194480
_cell_length_b   7.01999999
_cell_length_c   49.63889599
_cell_angle_alpha   90.00000000
_cell_angle_beta   90.00000000
_cell_angle_gamma   90.00000000
_symmetry_Int_Tables_number   1
_chemical_formula_structural   Ni
_chemical_formula_sum   Ni38
_cell_volume   864.87101753
_cell_formula_units_Z   38
loop_
 _symmetry_equiv_pos_site_id
 _symmetry_equiv_pos_as_xyz
  1  'x, y, z'
loop_
 _atom_site_type_symbol
 _atom_site_label
 _atom_site_symmetry_multiplicity
 _atom_site_fract_x
 _atom_site_fract_y
 _atom_site_fract_z
 _atom_site_occupancy
  Ni  Ni1  1  0.000000  0.000000  0.712500  1
  Ni  Ni2  1  0.000000  0.500000  0.712500  1
  Ni  Ni3  1  0.000000  0.500000  0.662500  1
  Ni  Ni4  1  0.000000  0.000000  0.662500  1
  Ni  Ni5  1  0.500000  0.750000  0.737500  1
  Ni  Ni6  1  0.500000  0.250000  0.687500  1
  Ni  Ni7  1  0.500000  0.750000  0.687500  1
  Ni  Ni8  1  0.000000  0.000000  0.612500  1
  Ni  Ni9  1  0.000000  0.500000  0.612500  1
  Ni  Ni10  1  0.000000  0.000000  0.562500  1
  Ni  Ni11  1  0.000000  0.500000  0.562500  1
  Ni  Ni12  1  0.500000  0.250000  0.637500  1
  Ni  Ni13  1  0.500000  0.750000  0.637500  1
  Ni  Ni14  1  0.500000  0.250000  0.587500  1
  Ni  Ni15  1  0.500000  0.750000  0.587500  1
  Ni  Ni16  1  0.000000  0.500000  0.512500  1
  Ni  Ni17  1  0.000000  0.000000  0.512500  1
  Ni  Ni18  1  0.000000  0.000000  0.462500  1
  Ni  Ni19  1  0.000000  0.500000  0.462500  1
  Ni  Ni20  1  0.500000  0.250000  0.537500  1
  Ni  Ni21  1  0.500000  0.750000  0.537500  1
  Ni  Ni22  1  0.500000  0.250000  0.487500  1
  Ni  Ni23  1  0.500000  0.750000  0.487500  1
  Ni  Ni24  1  0.000000  0.500000  0.412500  1
  Ni  Ni25  1  0.000000  0.000000  0.412500  1
  Ni  Ni26  1  0.000000  0.500000  0.362500  1
  Ni  Ni27  1  0.000000  0.000000  0.362500  1
  Ni  Ni28  1  0.500000  0.250000  0.437500  1
  Ni  Ni29  1  0.500000  0.750000  0.437500  1
  Ni  Ni30  1  0.500000  0.250000  0.387500  1
  Ni  Ni31  1  0.500000  0.750000  0.387500  1
  Ni  Ni32  1  0.000000  0.500000  0.312500  1
  Ni  Ni33  1  0.000000  0.000000  0.312500  1
  Ni  Ni34  1  0.000000  0.500000  0.262500  1
  Ni  Ni35  1  0.500000  0.250000  0.337500  1
  Ni  Ni36  1  0.500000  0.750000  0.337500  1
  Ni  Ni37  1  0.500000  0.250000  0.287500  1
  Ni  Ni38  1  0.500000  0.750000  0.287500  1
