# generated using pymatgen
data_Si
_symmetry_space_group_name_H-M   'P 1'
_cell_length_a   3.83994338
_cell_length_b   5.43050000
_cell_length_c   46.07932053
_cell_angle_alpha   90.00000000
_cell_angle_beta   90.00000000
_cell_angle_gamma   90.00000000
_symmetry_Int_Tables_number   1
_chemical_formula_structural   Si
_chemical_formula_sum   Si28
_cell_volume   960.88343211
_cell_formula_units_Z   28
loop_
 _symmetry_equiv_pos_site_id
 _symmetry_equiv_pos_as_xyz
  1  'x, y, z'
loop_
 _atom_site_type_symbol
 _atom_site_label
 _atom_site_symmetry_multiplicity
 _atom_site_fract_x
 _atom_site_fract_y
 _atom_site_fract_z
 _atom_site_occupancy
  Si  Si1  1  0.000000  0.750000  0.645833  1
  Si  Si2  1  0.000000  0.750000  0.729167  1
  Si  Si3  1  0.500000  0.000000  0.729167  1
  Si  Si4  1  0.500000  0.000000  0.645833  1
  Si  Si5  1  0.500000  0.250000  0.604167  1
  Si  Si6  1  0.500000  0.250000  0.687500  1
  Si  Si7  1  0.000000  0.500000  0.604167  1
  Si  Si8  1  0.000000  0.500000  0.687500  1
  Si  Si9  1  0.000000  0.750000  0.479167  1
  Si  Si10  1  0.000000  0.750000  0.562500  1
  Si  Si11  1  0.500000  0.000000  0.562500  1
  Si  Si12  1  0.500000  0.000000  0.479167  1
  Si  Si13  1  0.500000  0.250000  0.437500  1
  Si  Si14  1  0.500000  0.250000  0.520833  1
  Si  Si15  1  0.000000  0.500000  0.437500  1
  Si  Si16  1  0.000000  0.500000  0.520833  1
  Si  Si17  1  0.000000  0.750000  0.312500  1
  Si  Si18  1  0.000000  0.750000  0.395833  1
  Si  Si19  1  0.500000  1.000000  0.395833  1
  Si  Si20  1  0.500000  0.000000  0.312500  1
  Si  Si21  1  0.500000  0.250000  0.270833  1
  Si  Si22  1  0.500000  0.250000  0.354167  1
  Si  Si23  1  0.000000  0.500000  0.270833  1
  Si  Si24  1  0.000000  0.500000  0.354167  1
  Si  Si25  1  0.500000  0.215260  0.773750  1
  Si  Si26  1  -0.500000  0.034740  -0.773750  1
  Si  Si27  1  0.000000  0.423670  0.760625  1
  Si  Si28  1  0.000000  -0.173670  -0.760625  1
