# generated using pymatgen
data_Fe
_symmetry_space_group_name_H-M   'P 1'
_cell_length_a   2.44443464
_cell_length_b   3.99174506
_cell_length_c   27.65562101
_cell_angle_alpha   90.00000000
_cell_angle_beta   90.00000000
_cell_angle_gamma   90.00000000
_symmetry_Int_Tables_number   1
_chemical_formula_structural   Fe
_chemical_formula_sum   Fe24
_cell_volume   269.85137899
_cell_formula_units_Z   24
loop_
 _symmetry_equiv_pos_site_id
 _symmetry_equiv_pos_as_xyz
  1  'x, y, z'
loop_
 _atom_site_type_symbol
 _atom_site_label
 _atom_site_symmetry_multiplicity
 _atom_site_fract_x
 _atom_site_fract_y
 _atom_site_fract_z
 _atom_site_occupancy
  Fe  Fe1  1  0.000000  0.000000  0.000000  1
  Fe  Fe2  1  0.666667  0.000000  0.916667  1
  Fe  Fe3  1  0.333333  0.000000  0.833333  1
  Fe  Fe4  1  -0.000000  0.000000  0.750000  1
  Fe  Fe5  1  0.333333  0.500000  0.041667  1
  Fe  Fe6  1  0.333333  0.500000  0.958333  1
  Fe  Fe7  1  -0.000000  0.500000  0.125000  1
  Fe  Fe8  1  -0.000000  0.500000  0.875000  1
  Fe  Fe9  1  0.666667  0.500000  0.791667  1
  Fe  Fe10  1  0.666667  0.000000  0.083333  1
  Fe  Fe11  1  0.333333  0.500000  0.708333  1
  Fe  Fe12  1  0.333333  0.000000  0.583333  1
  Fe  Fe13  1  -0.000000  0.000000  0.500000  1
  Fe  Fe14  1  0.333333  -0.000000  0.416667  1
  Fe  Fe15  1  0.666667  0.500000  0.458333  1
  Fe  Fe16  1  0.666667  0.500000  0.541667  1
  Fe  Fe17  1  -0.000000  0.500000  0.625000  1
  Fe  Fe18  1  -0.000000  0.500000  0.375000  1
  Fe  Fe19  1  0.333333  0.500000  0.291667  1
  Fe  Fe20  1  -0.000000  0.000000  0.250000  1
  Fe  Fe21  1  0.333333  0.000000  0.166667  1
  Fe  Fe22  1  0.666667  -0.000000  0.333333  1
  Fe  Fe23  1  0.666667  0.500000  0.208333  1
  Fe  Fe24  1  0.666667  0.000000  0.666667  1
