# generated using pymatgen
data_FeN
_symmetry_space_group_name_H-M   'P 1'
_cell_length_a   2.99492725
_cell_length_b   2.99492725
_cell_length_c   2.99492725
_cell_angle_alpha   59.99999993
_cell_angle_beta   59.99999991
_cell_angle_gamma   59.99999990
_symmetry_Int_Tables_number   1
_chemical_formula_structural   FeN
_chemical_formula_sum   'Fe1 N1'
_cell_volume   18.995198407
_cell_formula_units_Z   1
loop_
 _symmetry_equiv_pos_site_id
 _symmetry_equiv_pos_as_xyz
  1  'x, y, z'
loop_
 _atom_type_symbol
 _atom_type_oxidation_number
  Fe3+  3.0
  N3-  -3.0
loop_
 _atom_site_type_symbol
 _atom_site_label
 _atom_site_symmetry_multiplicity
 _atom_site_fract_x
 _atom_site_fract_y
 _atom_site_fract_z
 _atom_site_occupancy
  N3-  N1  1  0.250000  0.250000  0.250000  1
  Fe3+  Fe2  1  0.000000  0.000000  0.000000  1
