# generated using pymatgen
data_Ag7P3S11
_symmetry_space_group_name_H-M   'P 1'
_cell_length_a   12.64332997
_cell_length_b   12.64332997
_cell_length_c   24.87109559
_cell_angle_alpha   69.91515164
_cell_angle_beta   110.08484836
_cell_angle_gamma   150.48750689
_symmetry_Int_Tables_number   1
_chemical_formula_structural   Ag7P3S11
_chemical_formula_sum   'Ag28 P12 S44'
_cell_volume   1830.84528996
_cell_formula_units_Z   4
loop_
 _symmetry_equiv_pos_site_id
 _symmetry_equiv_pos_as_xyz
  1  'x, y, z'
loop_
 _atom_site_type_symbol
 _atom_site_label
 _atom_site_symmetry_multiplicity
 _atom_site_fract_x
 _atom_site_fract_y
 _atom_site_fract_z
 _atom_site_occupancy
  Ag  Ag1  1  0.831919  0.786304  0.686627  1
  Ag  Ag2  1  0.820526  0.600612  0.900563  1
  Ag  Ag3  1  0.786304  0.831919  0.813373  1
  Ag  Ag4  1  0.817901  0.298916  0.067183  1
  Ag  Ag5  1  0.701084  0.182099  0.567183  1
  Ag  Ag6  1  0.174152  0.354941  0.681873  1
  Ag  Ag7  1  0.267362  0.084978  0.106275  1
  Ag  Ag8  1  0.645059  0.825848  0.181873  1
  Ag  Ag9  1  0.550477  0.892362  0.314276  1
  Ag  Ag10  1  0.182099  0.701084  0.932817  1
  Ag  Ag11  1  0.213696  0.168081  0.186627  1
  Ag  Ag12  1  0.915022  0.732638  0.606275  1
  Ag  Ag13  1  0.179474  0.399388  0.099437  1
  Ag  Ag14  1  0.449523  0.107638  0.685724  1
  Ag  Ag15  1  0.354941  0.174152  0.818127  1
  Ag  Ag16  1  0.168081  0.213696  0.313373  1
  Ag  Ag17  1  0.441422  0.948760  0.145126  1
  Ag  Ag18  1  0.107638  0.449523  0.814276  1
  Ag  Ag19  1  0.298916  0.817901  0.432817  1
  Ag  Ag20  1  0.558578  0.051240  0.854874  1
  Ag  Ag21  1  0.600612  0.820526  0.599437  1
  Ag  Ag22  1  0.084978  0.267362  0.393725  1
  Ag  Ag23  1  0.399388  0.179474  0.400563  1
  Ag  Ag24  1  0.892362  0.550477  0.185724  1
  Ag  Ag25  1  0.732638  0.915022  0.893725  1
  Ag  Ag26  1  0.825848  0.645059  0.318127  1
  Ag  Ag27  1  0.051240  0.558578  0.645126  1
  Ag  Ag28  1  0.948760  0.441422  0.354874  1
  P  P29  1  0.310392  0.289649  0.605684  1
  P  P30  1  0.373138  0.038708  0.278959  1
  P  P31  1  0.671990  0.955432  0.017955  1
  P  P32  1  0.289649  0.310392  0.894316  1
  P  P33  1  0.710351  0.689608  0.105684  1
  P  P34  1  0.044568  0.328010  0.517955  1
  P  P35  1  0.328010  0.044568  0.982045  1
  P  P36  1  0.038708  0.373138  0.221041  1
  P  P37  1  0.689608  0.710351  0.394316  1
  P  P38  1  0.626862  0.961292  0.721041  1
  P  P39  1  0.961292  0.626862  0.778959  1
  P  P40  1  0.955432  0.671990  0.482045  1
  S  S41  1  0.147889  0.489247  0.296425  1
  S  S42  1  0.489247  0.147889  0.203575  1
  S  S43  1  0.059234  0.540412  0.152056  1
  S  S44  1  0.071389  0.170661  0.537773  1
  S  S45  1  0.940766  0.459588  0.847944  1
  S  S46  1  0.804651  0.782935  0.184499  1
  S  S47  1  0.483134  0.810748  0.942162  1
  S  S48  1  0.217065  0.195349  0.684499  1
  S  S49  1  0.715071  0.066040  0.507506  1
  S  S50  1  0.867724  0.700005  0.090866  1
  S  S51  1  0.492089  0.820016  0.076909  1
  S  S52  1  0.510753  0.852111  0.796425  1
  S  S53  1  0.782935  0.804651  0.315501  1
  S  S54  1  0.700005  0.867724  0.409134  1
  S  S55  1  0.170661  0.071389  0.962227  1
  S  S56  1  0.933960  0.284929  0.007506  1
  S  S57  1  0.620232  0.607430  0.909458  1
  S  S58  1  0.392570  0.379768  0.409458  1
  S  S59  1  0.810748  0.483134  0.557838  1
  S  S60  1  0.516866  0.189252  0.057838  1
  S  S61  1  0.189252  0.516866  0.442162  1
  S  S62  1  0.285961  0.952926  0.778851  1
  S  S63  1  0.299995  0.132276  0.590866  1
  S  S64  1  0.928611  0.829339  0.462227  1
  S  S65  1  0.776651  0.593436  0.789684  1
  S  S66  1  0.284929  0.933960  0.492494  1
  S  S67  1  0.540412  0.059234  0.347944  1
  S  S68  1  0.714039  0.047074  0.221149  1
  S  S69  1  0.132276  0.299995  0.909134  1
  S  S70  1  0.223349  0.406564  0.210316  1
  S  S71  1  0.852111  0.510753  0.703575  1
  S  S72  1  0.047074  0.714039  0.278851  1
  S  S73  1  0.507911  0.179984  0.923091  1
  S  S74  1  0.066040  0.715071  0.992494  1
  S  S75  1  0.406564  0.223349  0.289684  1
  S  S76  1  0.607430  0.620232  0.590542  1
  S  S77  1  0.952926  0.285961  0.721149  1
  S  S78  1  0.829339  0.928611  0.037773  1
  S  S79  1  0.459588  0.940766  0.652056  1
  S  S80  1  0.179984  0.507911  0.576909  1
  S  S81  1  0.820016  0.492089  0.423091  1
  S  S82  1  0.593436  0.776651  0.710316  1
  S  S83  1  0.379768  0.392570  0.090542  1
  S  S84  1  0.195349  0.217065  0.815501  1
