# generated using pymatgen
data_Si
_symmetry_space_group_name_H-M   'P 1'
_cell_length_a   3.83994338
_cell_length_b   7.67988675
_cell_length_c   56.43541149
_cell_angle_alpha   90.00000000
_cell_angle_beta   90.00000000
_cell_angle_gamma   120.00000000
_symmetry_Int_Tables_number   1
_chemical_formula_structural   Si
_chemical_formula_sum   Si44
_cell_volume   1441.32514816
_cell_formula_units_Z   44
loop_
 _symmetry_equiv_pos_site_id
 _symmetry_equiv_pos_as_xyz
  1  'x, y, z'
loop_
 _atom_site_type_symbol
 _atom_site_label
 _atom_site_symmetry_multiplicity
 _atom_site_fract_x
 _atom_site_fract_y
 _atom_site_fract_z
 _atom_site_occupancy
  Si  Si1  1  0.333333  0.333333  0.381944  1
  Si  Si2  1  0.333333  0.833333  0.381944  1
  Si  Si3  1  1.000000  0.500000  0.326389  1
  Si  Si4  1  0.000000  1.000000  0.326389  1
  Si  Si5  1  0.666667  0.166667  0.270833  1
  Si  Si6  1  0.666667  0.666667  0.270833  1
  Si  Si7  1  0.000000  0.000000  0.284722  1
  Si  Si8  1  0.000000  0.500000  0.284722  1
  Si  Si9  1  0.666667  0.166667  0.395833  1
  Si  Si10  1  0.666667  0.666667  0.395833  1
  Si  Si11  1  0.333333  0.333333  0.340278  1
  Si  Si12  1  0.333333  0.833333  0.340278  1
  Si  Si13  1  0.333333  0.333333  0.548611  1
  Si  Si14  1  0.333333  0.833333  0.548611  1
  Si  Si15  1  0.000000  0.000000  0.493056  1
  Si  Si16  1  1.000000  0.500000  0.493056  1
  Si  Si17  1  0.666667  0.166667  0.437500  1
  Si  Si18  1  0.666667  0.666667  0.437500  1
  Si  Si19  1  1.000000  0.500000  0.451389  1
  Si  Si20  1  1.000000  1.000000  0.451389  1
  Si  Si21  1  0.666667  0.166667  0.562500  1
  Si  Si22  1  0.666667  0.666667  0.562500  1
  Si  Si23  1  0.333333  0.333333  0.506944  1
  Si  Si24  1  0.333333  0.833333  0.506944  1
  Si  Si25  1  0.333333  0.333333  0.715278  1
  Si  Si26  1  0.333333  0.833333  0.715278  1
  Si  Si27  1  0.000000  0.000000  0.659722  1
  Si  Si28  1  0.000000  0.500000  0.659722  1
  Si  Si29  1  0.666667  0.166667  0.604167  1
  Si  Si30  1  0.666667  0.666667  0.604167  1
  Si  Si31  1  0.000000  0.000000  0.618056  1
  Si  Si32  1  0.000000  0.500000  0.618056  1
  Si  Si33  1  0.666667  0.166667  0.729167  1
  Si  Si34  1  0.666667  0.666667  0.729167  1
  Si  Si35  1  0.333333  0.333333  0.673611  1
  Si  Si36  1  0.333333  0.833333  0.673611  1
  Si  Si37  1  0.549680  0.038880  0.767361  1
  Si  Si38  1  -0.216347  0.794453  -0.767361  1
  Si  Si39  1  0.834460  0.831570  0.767361  1
  Si  Si40  1  -0.501127  0.001763  -0.767361  1
  Si  Si41  1  0.839280  0.335630  0.795139  1
  Si  Si42  1  -0.505947  0.497703  -0.795139  1
  Si  Si43  1  0.503450  0.499750  0.782417  1
  Si  Si44  1  -0.170117  0.333583  -0.782417  1
