# generated using pymatgen
data_Be
_symmetry_space_group_name_H-M   'P 1'
_cell_length_a   5.99187600
_cell_length_b   5.99187665
_cell_length_c   28.74005300
_cell_angle_alpha   90.00000000
_cell_angle_beta   90.00000000
_cell_angle_gamma   59.99999252
_symmetry_Int_Tables_number   1
_chemical_formula_structural   Be
_chemical_formula_sum   Be112
_cell_volume   893.60140884
_cell_formula_units_Z   112
loop_
 _symmetry_equiv_pos_site_id
 _symmetry_equiv_pos_as_xyz
  1  'x, y, z'
loop_
 _atom_site_type_symbol
 _atom_site_label
 _atom_site_symmetry_multiplicity
 _atom_site_fract_x
 _atom_site_fract_y
 _atom_site_fract_z
 _atom_site_occupancy
  Be  Be1  1  0.666667  0.666666  0.031329  1
  Be  Be2  1  0.666667  0.666666  0.151213  1
  Be  Be3  1  0.666667  0.666666  0.274979  1
  Be  Be4  1  0.666667  0.666666  0.398981  1
  Be  Be5  1  0.535023  0.374017  0.027315  1
  Be  Be6  1  0.524077  0.380429  0.150977  1
  Be  Be7  1  0.523968  0.380808  0.274849  1
  Be  Be8  1  0.525166  0.382239  0.398151  1
  Be  Be9  1  0.374017  0.090960  0.027315  1
  Be  Be10  1  0.380429  0.095494  0.150977  1
  Be  Be11  1  0.380808  0.095224  0.274849  1
  Be  Be12  1  0.382239  0.092594  0.398151  1
  Be  Be13  1  0.239096  0.795039  0.026853  1
  Be  Be14  1  0.238098  0.809058  0.151012  1
  Be  Be15  1  0.238050  0.809237  0.274882  1
  Be  Be16  1  0.236114  0.806897  0.398706  1
  Be  Be17  1  0.090960  0.535022  0.027315  1
  Be  Be18  1  0.095494  0.524076  0.150977  1
  Be  Be19  1  0.095224  0.523967  0.274849  1
  Be  Be20  1  0.092594  0.525165  0.398151  1
  Be  Be21  1  0.965866  0.239096  0.026853  1
  Be  Be22  1  0.952843  0.238098  0.151012  1
  Be  Be23  1  0.952713  0.238050  0.274882  1
  Be  Be24  1  0.956988  0.236114  0.398706  1
  Be  Be25  1  0.795039  0.965866  0.026853  1
  Be  Be26  1  0.809058  0.952843  0.151012  1
  Be  Be27  1  0.809237  0.952713  0.274882  1
  Be  Be28  1  0.806897  0.956988  0.398706  1
  Be  Be29  1  0.617761  0.907406  0.089653  1
  Be  Be30  1  0.619192  0.904776  0.212956  1
  Be  Be31  1  0.619571  0.904506  0.336828  1
  Be  Be32  1  0.625983  0.909040  0.460490  1
  Be  Be33  1  0.474834  0.617761  0.089653  1
  Be  Be34  1  0.476032  0.619192  0.212956  1
  Be  Be35  1  0.475923  0.619571  0.336828  1
  Be  Be36  1  0.464977  0.625983  0.460490  1
  Be  Be37  1  0.333333  0.333334  0.088823  1
  Be  Be38  1  0.333333  0.333334  0.212826  1
  Be  Be39  1  0.333333  0.333334  0.336592  1
  Be  Be40  1  0.333333  0.333334  0.456476  1
  Be  Be41  1  0.193103  0.043012  0.089098  1
  Be  Be42  1  0.190763  0.047287  0.212923  1
  Be  Be43  1  0.190942  0.047157  0.336793  1
  Be  Be44  1  0.204961  0.034134  0.460952  1
  Be  Be45  1  0.043012  0.763886  0.089098  1
  Be  Be46  1  0.047287  0.761950  0.212923  1
  Be  Be47  1  0.047157  0.761902  0.336793  1
  Be  Be48  1  0.034134  0.760904  0.460952  1
  Be  Be49  1  0.907406  0.474835  0.089653  1
  Be  Be50  1  0.904776  0.476033  0.212956  1
  Be  Be51  1  0.904506  0.475924  0.336828  1
  Be  Be52  1  0.909040  0.464978  0.460490  1
  Be  Be53  1  0.763886  0.193103  0.089098  1
  Be  Be54  1  0.761950  0.190763  0.212923  1
  Be  Be55  1  0.761902  0.190942  0.336793  1
  Be  Be56  1  0.760904  0.204961  0.460952  1
  Be  Be57  1  0.625983  0.464977  0.527315  1
  Be  Be58  1  0.619571  0.475923  0.650977  1
  Be  Be59  1  0.619192  0.476032  0.774849  1
  Be  Be60  1  0.617761  0.474834  0.898151  1
  Be  Be61  1  0.333333  0.333333  0.531329  1
  Be  Be62  1  0.333333  0.333333  0.651213  1
  Be  Be63  1  0.333333  0.333333  0.774979  1
  Be  Be64  1  0.333333  0.333333  0.898981  1
  Be  Be65  1  0.034134  0.204961  0.526853  1
  Be  Be66  1  0.047157  0.190942  0.651012  1
  Be  Be67  1  0.047287  0.190763  0.774882  1
  Be  Be68  1  0.043012  0.193103  0.898706  1
  Be  Be69  1  0.760904  0.034134  0.526853  1
  Be  Be70  1  0.761902  0.047157  0.651012  1
  Be  Be71  1  0.761950  0.047287  0.774882  1
  Be  Be72  1  0.763886  0.043012  0.898706  1
  Be  Be73  1  0.464977  0.909040  0.527315  1
  Be  Be74  1  0.475923  0.904506  0.650977  1
  Be  Be75  1  0.476032  0.904776  0.774849  1
  Be  Be76  1  0.474834  0.907406  0.898151  1
  Be  Be77  1  0.204961  0.760904  0.526853  1
  Be  Be78  1  0.190942  0.761902  0.651012  1
  Be  Be79  1  0.190763  0.761950  0.774882  1
  Be  Be80  1  0.193103  0.763886  0.898706  1
  Be  Be81  1  0.909040  0.625982  0.527315  1
  Be  Be82  1  0.904506  0.619570  0.650977  1
  Be  Be83  1  0.904776  0.619191  0.774849  1
  Be  Be84  1  0.907406  0.617760  0.898151  1
  Be  Be85  1  0.666667  0.666667  0.588823  1
  Be  Be86  1  0.666667  0.666667  0.712826  1
  Be  Be87  1  0.666667  0.666667  0.836592  1
  Be  Be88  1  0.666667  0.666667  0.956476  1
  Be  Be89  1  0.382239  0.525166  0.589653  1
  Be  Be90  1  0.380808  0.523968  0.712956  1
  Be  Be91  1  0.380429  0.524077  0.836828  1
  Be  Be92  1  0.374017  0.535023  0.960490  1
  Be  Be93  1  0.092594  0.382240  0.589653  1
  Be  Be94  1  0.095224  0.380809  0.712956  1
  Be  Be95  1  0.095494  0.380430  0.836828  1
  Be  Be96  1  0.090960  0.374018  0.960490  1
  Be  Be97  1  0.806897  0.236114  0.589098  1
  Be  Be98  1  0.809237  0.238050  0.712923  1
  Be  Be99  1  0.809058  0.238098  0.836793  1
  Be  Be100  1  0.795039  0.239096  0.960952  1
  Be  Be101  1  0.525166  0.092594  0.589653  1
  Be  Be102  1  0.523968  0.095224  0.712956  1
  Be  Be103  1  0.524077  0.095494  0.836828  1
  Be  Be104  1  0.535023  0.090960  0.960490  1
  Be  Be105  1  0.236114  0.956988  0.589098  1
  Be  Be106  1  0.238050  0.952713  0.712923  1
  Be  Be107  1  0.238098  0.952843  0.836793  1
  Be  Be108  1  0.239096  0.965866  0.960952  1
  Be  Be109  1  0.956988  0.806897  0.589098  1
  Be  Be110  1  0.952713  0.809237  0.712923  1
  Be  Be111  1  0.952843  0.809058  0.836793  1
  Be  Be112  1  0.965866  0.795039  0.960952  1
