# generated using pymatgen
data_Bi
_symmetry_space_group_name_H-M   'P 1'
_cell_length_a   4.79829946
_cell_length_b   4.79829946
_cell_length_c   4.79829946
_cell_angle_alpha   57.26305593
_cell_angle_beta   57.26305593
_cell_angle_gamma   57.26305593
_symmetry_Int_Tables_number   1
_chemical_formula_structural   Bi
_chemical_formula_sum   Bi2
_cell_volume   73.1939584902
_cell_formula_units_Z   2
loop_
 _symmetry_equiv_pos_site_id
 _symmetry_equiv_pos_as_xyz
  1  'x, y, z'
loop_
 _atom_site_type_symbol
 _atom_site_label
 _atom_site_symmetry_multiplicity
 _atom_site_fract_x
 _atom_site_fract_y
 _atom_site_fract_z
 _atom_site_occupancy
  Bi  Bi1  1  0.765615  0.765615  0.765615  1
  Bi  Bi2  1  0.234385  0.234385  0.234385  1
