# generated using pymatgen
data_Br
_symmetry_space_group_name_H-M   'P 1'
_cell_length_a   4.25864728
_cell_length_b   8.45219038
_cell_length_c   8.74379641
_cell_angle_alpha   90.00000000
_cell_angle_beta   90.00000000
_cell_angle_gamma   90.00000000
_symmetry_Int_Tables_number   1
_chemical_formula_structural   Br
_chemical_formula_sum   Br8
_cell_volume   314.732056167
_cell_formula_units_Z   8
loop_
 _symmetry_equiv_pos_site_id
 _symmetry_equiv_pos_as_xyz
  1  'x, y, z'
loop_
 _atom_site_type_symbol
 _atom_site_label
 _atom_site_symmetry_multiplicity
 _atom_site_fract_x
 _atom_site_fract_y
 _atom_site_fract_z
 _atom_site_occupancy
  Br  Br1  1  0.857527  0.000000  0.617751  1
  Br  Br2  1  0.142473  0.000000  0.382249  1
  Br  Br3  1  0.642473  0.000000  0.117751  1
  Br  Br4  1  0.357527  0.000000  0.882249  1
  Br  Br5  1  0.357527  0.500000  0.617751  1
  Br  Br6  1  0.642473  0.500000  0.382249  1
  Br  Br7  1  0.142473  0.500000  0.117751  1
  Br  Br8  1  0.857527  0.500000  0.882249  1
