# generated using pymatgen
data_Mo
_symmetry_space_group_name_H-M   'P 1'
_cell_length_a   2.74455055
_cell_length_b   4.48183228
_cell_length_c   31.05104491
_cell_angle_alpha   90.00000000
_cell_angle_beta   90.00000000
_cell_angle_gamma   90.00000000
_symmetry_Int_Tables_number   1
_chemical_formula_structural   Mo
_chemical_formula_sum   Mo24
_cell_volume   381.94695707
_cell_formula_units_Z   24
loop_
 _symmetry_equiv_pos_site_id
 _symmetry_equiv_pos_as_xyz
  1  'x, y, z'
loop_
 _atom_site_type_symbol
 _atom_site_label
 _atom_site_symmetry_multiplicity
 _atom_site_fract_x
 _atom_site_fract_y
 _atom_site_fract_z
 _atom_site_occupancy
  Mo  Mo1  1  0.333333  0.500000  0.708333  1
  Mo  Mo2  1  0.000000  0.500000  0.625000  1
  Mo  Mo3  1  0.666667  -0.000000  0.666667  1
  Mo  Mo4  1  0.000000  0.000000  0.000000  1
  Mo  Mo5  1  0.666667  -0.000000  0.083333  1
  Mo  Mo6  1  0.333333  -0.000000  0.833333  1
  Mo  Mo7  1  -0.000000  -0.000000  0.750000  1
  Mo  Mo8  1  0.333333  0.500000  0.041667  1
  Mo  Mo9  1  0.333333  0.500000  0.958333  1
  Mo  Mo10  1  -0.000000  0.500000  0.875000  1
  Mo  Mo11  1  0.666667  0.500000  0.791667  1
  Mo  Mo12  1  0.666667  -0.000000  0.916667  1
  Mo  Mo13  1  0.000000  0.500000  0.125000  1
  Mo  Mo14  1  0.333333  -0.000000  0.166667  1
  Mo  Mo15  1  0.333333  -0.000000  0.583333  1
  Mo  Mo16  1  -0.000000  -0.000000  0.500000  1
  Mo  Mo17  1  -0.000000  -0.000000  0.250000  1
  Mo  Mo18  1  0.666667  -0.000000  0.333333  1
  Mo  Mo19  1  0.666667  0.500000  0.458333  1
  Mo  Mo20  1  0.666667  0.500000  0.541667  1
  Mo  Mo21  1  -0.000000  0.500000  0.375000  1
  Mo  Mo22  1  0.333333  0.500000  0.291667  1
  Mo  Mo23  1  0.333333  -0.000000  0.416667  1
  Mo  Mo24  1  0.666667  0.500000  0.208333  1
