# generated using pymatgen
data_Zn
_symmetry_space_group_name_H-M   'P 1'
_cell_length_a   6.92975110
_cell_length_b   6.92975163
_cell_length_c   33.61347040
_cell_angle_alpha   90.00000000
_cell_angle_beta   90.00000000
_cell_angle_gamma   59.99999152
_symmetry_Int_Tables_number   1
_chemical_formula_structural   Zn
_chemical_formula_sum   Zn112
_cell_volume   1397.91013256
_cell_formula_units_Z   112
loop_
 _symmetry_equiv_pos_site_id
 _symmetry_equiv_pos_as_xyz
  1  'x, y, z'
loop_
 _atom_site_type_symbol
 _atom_site_label
 _atom_site_symmetry_multiplicity
 _atom_site_fract_x
 _atom_site_fract_y
 _atom_site_fract_z
 _atom_site_occupancy
  Zn  Zn1  1  0.666667  0.666666  0.030488  1
  Zn  Zn2  1  0.666667  0.666666  0.152439  1
  Zn  Zn3  1  0.666667  0.666666  0.274390  1
  Zn  Zn4  1  0.666667  0.666666  0.396341  1
  Zn  Zn5  1  0.523810  0.380952  0.030488  1
  Zn  Zn6  1  0.523810  0.380952  0.152439  1
  Zn  Zn7  1  0.523810  0.380952  0.274390  1
  Zn  Zn8  1  0.523810  0.380952  0.396341  1
  Zn  Zn9  1  0.380952  0.095238  0.030488  1
  Zn  Zn10  1  0.380952  0.095238  0.152439  1
  Zn  Zn11  1  0.380952  0.095238  0.274390  1
  Zn  Zn12  1  0.380952  0.095238  0.396341  1
  Zn  Zn13  1  0.238095  0.809524  0.030488  1
  Zn  Zn14  1  0.238095  0.809524  0.152439  1
  Zn  Zn15  1  0.238095  0.809524  0.274390  1
  Zn  Zn16  1  0.238095  0.809524  0.396341  1
  Zn  Zn17  1  0.095238  0.523809  0.030488  1
  Zn  Zn18  1  0.095238  0.523809  0.152439  1
  Zn  Zn19  1  0.095238  0.523809  0.274390  1
  Zn  Zn20  1  0.095238  0.523809  0.396341  1
  Zn  Zn21  1  0.952381  0.238095  0.030488  1
  Zn  Zn22  1  0.952381  0.238095  0.152439  1
  Zn  Zn23  1  0.952381  0.238095  0.274390  1
  Zn  Zn24  1  0.952381  0.238095  0.396341  1
  Zn  Zn25  1  0.809524  0.952381  0.030488  1
  Zn  Zn26  1  0.809524  0.952381  0.152439  1
  Zn  Zn27  1  0.809524  0.952381  0.274390  1
  Zn  Zn28  1  0.809524  0.952381  0.396341  1
  Zn  Zn29  1  0.619048  0.904762  0.091463  1
  Zn  Zn30  1  0.619048  0.904762  0.213415  1
  Zn  Zn31  1  0.619048  0.904762  0.335366  1
  Zn  Zn32  1  0.619048  0.904762  0.457317  1
  Zn  Zn33  1  0.476190  0.619048  0.091463  1
  Zn  Zn34  1  0.476190  0.619048  0.213415  1
  Zn  Zn35  1  0.476190  0.619048  0.335366  1
  Zn  Zn36  1  0.476190  0.619048  0.457317  1
  Zn  Zn37  1  0.333333  0.333334  0.091463  1
  Zn  Zn38  1  0.333333  0.333334  0.213415  1
  Zn  Zn39  1  0.333333  0.333334  0.335366  1
  Zn  Zn40  1  0.333333  0.333334  0.457317  1
  Zn  Zn41  1  0.190476  0.047619  0.091463  1
  Zn  Zn42  1  0.190476  0.047619  0.213415  1
  Zn  Zn43  1  0.190476  0.047619  0.335366  1
  Zn  Zn44  1  0.190476  0.047619  0.457317  1
  Zn  Zn45  1  0.047619  0.761905  0.091463  1
  Zn  Zn46  1  0.047619  0.761905  0.213415  1
  Zn  Zn47  1  0.047619  0.761905  0.335366  1
  Zn  Zn48  1  0.047619  0.761905  0.457317  1
  Zn  Zn49  1  0.904762  0.476191  0.091463  1
  Zn  Zn50  1  0.904762  0.476191  0.213415  1
  Zn  Zn51  1  0.904762  0.476191  0.335366  1
  Zn  Zn52  1  0.904762  0.476191  0.457317  1
  Zn  Zn53  1  0.761905  0.190476  0.091463  1
  Zn  Zn54  1  0.761905  0.190476  0.213415  1
  Zn  Zn55  1  0.761905  0.190476  0.335366  1
  Zn  Zn56  1  0.761905  0.190476  0.457317  1
  Zn  Zn57  1  0.619048  0.476190  0.530488  1
  Zn  Zn58  1  0.619048  0.476190  0.652439  1
  Zn  Zn59  1  0.619048  0.476190  0.774390  1
  Zn  Zn60  1  0.619048  0.476190  0.896341  1
  Zn  Zn61  1  0.333333  0.333333  0.530488  1
  Zn  Zn62  1  0.333333  0.333333  0.652439  1
  Zn  Zn63  1  0.333333  0.333333  0.774390  1
  Zn  Zn64  1  0.333333  0.333333  0.896341  1
  Zn  Zn65  1  0.047619  0.190476  0.530488  1
  Zn  Zn66  1  0.047619  0.190476  0.652439  1
  Zn  Zn67  1  0.047619  0.190476  0.774390  1
  Zn  Zn68  1  0.047619  0.190476  0.896341  1
  Zn  Zn69  1  0.761905  0.047619  0.530488  1
  Zn  Zn70  1  0.761905  0.047619  0.652439  1
  Zn  Zn71  1  0.761905  0.047619  0.774390  1
  Zn  Zn72  1  0.761905  0.047619  0.896341  1
  Zn  Zn73  1  0.476190  0.904762  0.530488  1
  Zn  Zn74  1  0.476190  0.904762  0.652439  1
  Zn  Zn75  1  0.476190  0.904762  0.774390  1
  Zn  Zn76  1  0.476190  0.904762  0.896341  1
  Zn  Zn77  1  0.190476  0.761905  0.530488  1
  Zn  Zn78  1  0.190476  0.761905  0.652439  1
  Zn  Zn79  1  0.190476  0.761905  0.774390  1
  Zn  Zn80  1  0.190476  0.761905  0.896341  1
  Zn  Zn81  1  0.904762  0.619047  0.530488  1
  Zn  Zn82  1  0.904762  0.619047  0.652439  1
  Zn  Zn83  1  0.904762  0.619047  0.774390  1
  Zn  Zn84  1  0.904762  0.619047  0.896341  1
  Zn  Zn85  1  0.666667  0.666667  0.591463  1
  Zn  Zn86  1  0.666667  0.666667  0.713415  1
  Zn  Zn87  1  0.666667  0.666667  0.835366  1
  Zn  Zn88  1  0.666667  0.666667  0.957317  1
  Zn  Zn89  1  0.380952  0.523810  0.591463  1
  Zn  Zn90  1  0.380952  0.523810  0.713415  1
  Zn  Zn91  1  0.380952  0.523810  0.835366  1
  Zn  Zn92  1  0.380952  0.523810  0.957317  1
  Zn  Zn93  1  0.095238  0.380953  0.591463  1
  Zn  Zn94  1  0.095238  0.380953  0.713415  1
  Zn  Zn95  1  0.095238  0.380953  0.835366  1
  Zn  Zn96  1  0.095238  0.380953  0.957317  1
  Zn  Zn97  1  0.809524  0.238095  0.591463  1
  Zn  Zn98  1  0.809524  0.238095  0.713415  1
  Zn  Zn99  1  0.809524  0.238095  0.835366  1
  Zn  Zn100  1  0.809524  0.238095  0.957317  1
  Zn  Zn101  1  0.523810  0.095238  0.591463  1
  Zn  Zn102  1  0.523810  0.095238  0.713415  1
  Zn  Zn103  1  0.523810  0.095238  0.835366  1
  Zn  Zn104  1  0.523810  0.095238  0.957317  1
  Zn  Zn105  1  0.238095  0.952381  0.591463  1
  Zn  Zn106  1  0.238095  0.952381  0.713415  1
  Zn  Zn107  1  0.238095  0.952381  0.835366  1
  Zn  Zn108  1  0.238095  0.952381  0.957317  1
  Zn  Zn109  1  0.952381  0.809524  0.591463  1
  Zn  Zn110  1  0.952381  0.809524  0.713415  1
  Zn  Zn111  1  0.952381  0.809524  0.835366  1
  Zn  Zn112  1  0.952381  0.809524  0.957317  1
