# generated using pymatgen
data_Cu
_symmetry_space_group_name_H-M   'P 1'
_cell_length_a   2.55691368
_cell_length_b   4.42859255
_cell_length_c   26.19734870
_cell_angle_alpha   88.37900301
_cell_angle_beta   87.20279759
_cell_angle_gamma   73.22089924
_symmetry_Int_Tables_number   1
_chemical_formula_structural   Cu
_chemical_formula_sum   Cu12
_cell_volume   283.64699486
_cell_formula_units_Z   12
loop_
 _symmetry_equiv_pos_site_id
 _symmetry_equiv_pos_as_xyz
  1  'x, y, z'
loop_
 _atom_site_type_symbol
 _atom_site_label
 _atom_site_symmetry_multiplicity
 _atom_site_fract_x
 _atom_site_fract_y
 _atom_site_fract_z
 _atom_site_occupancy
  Cu  Cu1  1  0.354167  0.937500  0.354167  1.0
  Cu  Cu2  1  0.937500  0.854167  0.270833  1.0
  Cu  Cu3  1  0.645833  0.395833  0.312500  1.0
  Cu  Cu4  1  0.479167  0.562500  0.479167  1.0
  Cu  Cu5  1  0.062500  0.479167  0.395833  1.0
  Cu  Cu6  1  0.770833  0.020833  0.437500  1.0
  Cu  Cu7  1  0.604167  0.187500  0.604167  1.0
  Cu  Cu8  1  0.187500  0.104167  0.520833  1.0
  Cu  Cu9  1  0.895833  0.645833  0.562500  1.0
  Cu  Cu10  1  0.729167  0.812500  0.729167  1.0
  Cu  Cu11  1  0.312500  0.729167  0.645833  1.0
  Cu  Cu12  1  0.020833  0.270833  0.687500  1.0
