# generated using pymatgen
data_GdB4
_symmetry_space_group_name_H-M   'P 1'
_cell_length_a   7.13160000
_cell_length_b   7.13160000
_cell_length_c   4.05050000
_cell_angle_alpha   90.00000000
_cell_angle_beta   90.00000000
_cell_angle_gamma   90.00000000
_symmetry_Int_Tables_number   1
_chemical_formula_structural   GdB4
_chemical_formula_sum   'Gd4 B16'
_cell_volume   206.00729003
_cell_formula_units_Z   4
loop_
 _symmetry_equiv_pos_site_id
 _symmetry_equiv_pos_as_xyz
  1  'x, y, z'
loop_
 _atom_site_type_symbol
 _atom_site_label
 _atom_site_symmetry_multiplicity
 _atom_site_fract_x
 _atom_site_fract_y
 _atom_site_fract_z
 _atom_site_occupancy
  Gd  Gd0  1  0.31746000  0.81746000  0.00000000  1.0
  Gd  Gd1  1  0.18254000  0.31746000  0.00000000  1.0
  Gd  Gd2  1  0.81746000  0.68254000  0.00000000  1.0
  Gd  Gd3  1  0.68254000  0.18254000  0.00000000  1.0
  B  B4  1  0.00000000  0.00000000  0.20290000  1.0
  B  B5  1  0.50000000  0.50000000  0.79710000  1.0
  B  B6  1  0.00000000  0.00000000  0.79710000  1.0
  B  B7  1  0.50000000  0.50000000  0.20290000  1.0
  B  B8  1  0.17590000  0.03800000  0.50000000  1.0
  B  B9  1  0.96200000  0.17590000  0.50000000  1.0
  B  B10  1  0.03800000  0.82410000  0.50000000  1.0
  B  B11  1  0.67590000  0.46200000  0.50000000  1.0
  B  B12  1  0.32410000  0.53800000  0.50000000  1.0
  B  B13  1  0.82410000  0.96200000  0.50000000  1.0
  B  B14  1  0.53800000  0.67590000  0.50000000  1.0
  B  B15  1  0.46200000  0.32410000  0.50000000  1.0
  B  B16  1  0.08670000  0.58670000  0.50000000  1.0
  B  B17  1  0.41330000  0.08670000  0.50000000  1.0
  B  B18  1  0.58670000  0.91330000  0.50000000  1.0
  B  B19  1  0.91330000  0.41330000  0.50000000  1.0
loop_
 _atom_site_moment_label
 _atom_site_moment_crystalaxis_x
 _atom_site_moment_crystalaxis_y
 _atom_site_moment_crystalaxis_z
  Gd0  0.00000000  0.00000000  7.14177849
  Gd1  0.00000000  0.00000000  7.14177849
  Gd2  0.00000000  0.00000000  -7.14177849
  Gd3  0.00000000  0.00000000  -7.14177849
