# generated using pymatgen
data_Be
_symmetry_space_group_name_H-M   'P 1'
_cell_length_a   6.00931742
_cell_length_b   6.00931788
_cell_length_c   29.14881217
_cell_angle_alpha   90.00000000
_cell_angle_beta   90.00000000
_cell_angle_gamma   59.99999152
_symmetry_Int_Tables_number   1
_chemical_formula_structural   Be
_chemical_formula_sum   Be112
_cell_volume   911.59467216
_cell_formula_units_Z   112
loop_
 _symmetry_equiv_pos_site_id
 _symmetry_equiv_pos_as_xyz
  1  'x, y, z'
loop_
 _atom_site_type_symbol
 _atom_site_label
 _atom_site_symmetry_multiplicity
 _atom_site_fract_x
 _atom_site_fract_y
 _atom_site_fract_z
 _atom_site_occupancy
  Be  Be1  1  0.666667  0.666666  0.030488  1
  Be  Be2  1  0.666667  0.666666  0.152439  1
  Be  Be3  1  0.666667  0.666666  0.274390  1
  Be  Be4  1  0.666667  0.666666  0.396341  1
  Be  Be5  1  0.523810  0.380952  0.030488  1
  Be  Be6  1  0.523810  0.380952  0.152439  1
  Be  Be7  1  0.523810  0.380952  0.274390  1
  Be  Be8  1  0.523810  0.380952  0.396341  1
  Be  Be9  1  0.380952  0.095238  0.030488  1
  Be  Be10  1  0.380952  0.095238  0.152439  1
  Be  Be11  1  0.380952  0.095238  0.274390  1
  Be  Be12  1  0.380952  0.095238  0.396341  1
  Be  Be13  1  0.238095  0.809524  0.030488  1
  Be  Be14  1  0.238095  0.809524  0.152439  1
  Be  Be15  1  0.238095  0.809524  0.274390  1
  Be  Be16  1  0.238095  0.809524  0.396341  1
  Be  Be17  1  0.095238  0.523809  0.030488  1
  Be  Be18  1  0.095238  0.523809  0.152439  1
  Be  Be19  1  0.095238  0.523809  0.274390  1
  Be  Be20  1  0.095238  0.523809  0.396341  1
  Be  Be21  1  0.952381  0.238095  0.030488  1
  Be  Be22  1  0.952381  0.238095  0.152439  1
  Be  Be23  1  0.952381  0.238095  0.274390  1
  Be  Be24  1  0.952381  0.238095  0.396341  1
  Be  Be25  1  0.809524  0.952381  0.030488  1
  Be  Be26  1  0.809524  0.952381  0.152439  1
  Be  Be27  1  0.809524  0.952381  0.274390  1
  Be  Be28  1  0.809524  0.952381  0.396341  1
  Be  Be29  1  0.619048  0.904762  0.091463  1
  Be  Be30  1  0.619048  0.904762  0.213415  1
  Be  Be31  1  0.619048  0.904762  0.335366  1
  Be  Be32  1  0.619048  0.904762  0.457317  1
  Be  Be33  1  0.476190  0.619048  0.091463  1
  Be  Be34  1  0.476190  0.619048  0.213415  1
  Be  Be35  1  0.476190  0.619048  0.335366  1
  Be  Be36  1  0.476190  0.619048  0.457317  1
  Be  Be37  1  0.333333  0.333334  0.091463  1
  Be  Be38  1  0.333333  0.333334  0.213415  1
  Be  Be39  1  0.333333  0.333334  0.335366  1
  Be  Be40  1  0.333333  0.333334  0.457317  1
  Be  Be41  1  0.190476  0.047619  0.091463  1
  Be  Be42  1  0.190476  0.047619  0.213415  1
  Be  Be43  1  0.190476  0.047619  0.335366  1
  Be  Be44  1  0.190476  0.047619  0.457317  1
  Be  Be45  1  0.047619  0.761905  0.091463  1
  Be  Be46  1  0.047619  0.761905  0.213415  1
  Be  Be47  1  0.047619  0.761905  0.335366  1
  Be  Be48  1  0.047619  0.761905  0.457317  1
  Be  Be49  1  0.904762  0.476191  0.091463  1
  Be  Be50  1  0.904762  0.476191  0.213415  1
  Be  Be51  1  0.904762  0.476191  0.335366  1
  Be  Be52  1  0.904762  0.476191  0.457317  1
  Be  Be53  1  0.761905  0.190476  0.091463  1
  Be  Be54  1  0.761905  0.190476  0.213415  1
  Be  Be55  1  0.761905  0.190476  0.335366  1
  Be  Be56  1  0.761905  0.190476  0.457317  1
  Be  Be57  1  0.619048  0.476190  0.530488  1
  Be  Be58  1  0.619048  0.476190  0.652439  1
  Be  Be59  1  0.619048  0.476190  0.774390  1
  Be  Be60  1  0.619048  0.476190  0.896341  1
  Be  Be61  1  0.333333  0.333333  0.530488  1
  Be  Be62  1  0.333333  0.333333  0.652439  1
  Be  Be63  1  0.333333  0.333333  0.774390  1
  Be  Be64  1  0.333333  0.333333  0.896341  1
  Be  Be65  1  0.047619  0.190476  0.530488  1
  Be  Be66  1  0.047619  0.190476  0.652439  1
  Be  Be67  1  0.047619  0.190476  0.774390  1
  Be  Be68  1  0.047619  0.190476  0.896341  1
  Be  Be69  1  0.761905  0.047619  0.530488  1
  Be  Be70  1  0.761905  0.047619  0.652439  1
  Be  Be71  1  0.761905  0.047619  0.774390  1
  Be  Be72  1  0.761905  0.047619  0.896341  1
  Be  Be73  1  0.476190  0.904762  0.530488  1
  Be  Be74  1  0.476190  0.904762  0.652439  1
  Be  Be75  1  0.476190  0.904762  0.774390  1
  Be  Be76  1  0.476190  0.904762  0.896341  1
  Be  Be77  1  0.190476  0.761905  0.530488  1
  Be  Be78  1  0.190476  0.761905  0.652439  1
  Be  Be79  1  0.190476  0.761905  0.774390  1
  Be  Be80  1  0.190476  0.761905  0.896341  1
  Be  Be81  1  0.904762  0.619047  0.530488  1
  Be  Be82  1  0.904762  0.619047  0.652439  1
  Be  Be83  1  0.904762  0.619047  0.774390  1
  Be  Be84  1  0.904762  0.619047  0.896341  1
  Be  Be85  1  0.666667  0.666667  0.591463  1
  Be  Be86  1  0.666667  0.666667  0.713415  1
  Be  Be87  1  0.666667  0.666667  0.835366  1
  Be  Be88  1  0.666667  0.666667  0.957317  1
  Be  Be89  1  0.380952  0.523810  0.591463  1
  Be  Be90  1  0.380952  0.523810  0.713415  1
  Be  Be91  1  0.380952  0.523810  0.835366  1
  Be  Be92  1  0.380952  0.523810  0.957317  1
  Be  Be93  1  0.095238  0.380953  0.591463  1
  Be  Be94  1  0.095238  0.380953  0.713415  1
  Be  Be95  1  0.095238  0.380953  0.835366  1
  Be  Be96  1  0.095238  0.380953  0.957317  1
  Be  Be97  1  0.809524  0.238095  0.591463  1
  Be  Be98  1  0.809524  0.238095  0.713415  1
  Be  Be99  1  0.809524  0.238095  0.835366  1
  Be  Be100  1  0.809524  0.238095  0.957317  1
  Be  Be101  1  0.523810  0.095238  0.591463  1
  Be  Be102  1  0.523810  0.095238  0.713415  1
  Be  Be103  1  0.523810  0.095238  0.835366  1
  Be  Be104  1  0.523810  0.095238  0.957317  1
  Be  Be105  1  0.238095  0.952381  0.591463  1
  Be  Be106  1  0.238095  0.952381  0.713415  1
  Be  Be107  1  0.238095  0.952381  0.835366  1
  Be  Be108  1  0.238095  0.952381  0.957317  1
  Be  Be109  1  0.952381  0.809524  0.591463  1
  Be  Be110  1  0.952381  0.809524  0.713415  1
  Be  Be111  1  0.952381  0.809524  0.835366  1
  Be  Be112  1  0.952381  0.809524  0.957317  1
